$# LS-DYNA Keyword file created by WB-LSDYNA 2025 R1
*KEYWORD
*PARAMETER_DUPLICATION
4
*DATABASE_FORMAT
$    iform   ibinary                                                      unused
         0         0                                                            
*CONTROL_TERMINATION
$   endtim    endcyc     dtmin    endeng    endmas                        unused
       0.1  10000000     0.001         0    100000                              
*CONTROL_TIMESTEP
$   dtinit    tssfac      isdo    tslimt     dt2ms      lctm     erode     ms1st
         0       0.9         0         0         0         0         1         0
$   dt2msf   dt2mslc     imscl                                            unused
         0         0         0                                                  
*CONTROL_CONTACT
$   slsfac    rwnpal    islchk    shlthk    penopt    thkchg     orien    enmass
         0         0         1         1         1         0         2         0
$   usrstr   usrfric     nsbcs    interm     xpene     ssthk      ecdt   tiedprj
         0         0         0         0         0         0         0         0
$    sfric     dfric       edc       vfc        th     th_sf    pen_sf    unused
         0         0         0         0         0         0         0          
$   ignore    frceng   skiprwg    outseg   spotstp   spotdel   spothin   unused1
         2         1         0         1         0         1       0.5          
$     isym    nserod    rwgaps    rwgdth     rwksf      icov    swradf    ithoff
         0         0         0         0         0         0         0         0
$   shledg    pstiff    ithcnt    tdcnof     ftall                       unused2
         1         0         0         0         1                              
*CONTROL_ENERGY
$     hgen      rwen    slnten     rylen                                  unused
         2         2         2         2                                        
*CONTROL_ACCURACY
$      osu       inn    pidosu                                            unused
         0         1         0                                                 0
*CONTROL_BULK_VISCOSITY
$       q1        q2      type                                            unused
       1.5      0.06        -2                                                  
*CONTROL_SOLID
$    esort    fmatrx   niptets    swlocl                                  unused
         1         0         0         0                                        
$    pm1     pm2     pm3     pm4     pm5     pm6     pm7     pm8     pm9    pm10
       0       0       0       0       0       0       0       0       0       0
*CONTROL_SHELL
$   wrpang     esort     irnxx    istupd    theory       bwc     miter      proj
        20         1        -1         4         2         1         1         1
$  rotascl    intgrd    lamsht    cstyp6    tshell    nfail1    nfail4   psnfail
         0         0         0         0         0         1         1         0
$   pstupd    irquad     cntco                                            unused
         0         0         2                                                  
*CONTROL_OUTPUT
$    npopt    neecho    nrefup    iaccop     opifs    ipnint    ikedit    iflush
         1         0         0         0         0         0         0         0
$    iprtf    ierode     tet10    msgmax    ipcurv                        unused
         0         0         0         0         0                              
*CONTROL_PARALLEL
$     ncpu    numrhs    consti      para                                  unused
         0         0         1         0                                        
*CONTROL_SOLUTION
$     soln       nlq     isnan     lcint                                  unused
         0         0         0         0                                        
*CONTROL_HOURGLASS
$      ihq        qh                                                     unused1
         5       0.1                                                            
*SECTION_SOLID
$       ID    elform       aet                                           unused1
         1         1         0                                                  
*MAT_ELASTIC
$       ID        ro         E        pr        da        db         k   unused1
         1      7850     2E+11       0.3         0         0         0          
$Material Id = {1,{423D320B-C670-420B-86CD-B19DA0B00551}, Structural Steel}
*PART
$                                                             partname   unused1
                                                             SYS\Solid          
$       ID     secid       mid     eosid      hgid      grav     adopt      tmid
         1         1         1         0         0         0         0         0
*SECTION_SOLID
$       ID    elform       aet                                           unused1
         2         1         0                                                  
*MAT_ELASTIC
$       ID        ro         E        pr        da        db         k   unused1
         2      7850     2E+11       0.3         0         0         0          
$Material Id = {2,{4C937558-2D7C-4B78-BB8F-6D1BACECC97D}, Structural Steel}
*PART
$                                                             partname   unused1
                                                             SYS\Solid          
$       ID     secid       mid     eosid      hgid      grav     adopt      tmid
         2         2         2         0         0         0         0         0
*NODE
       1      0.00039473     -0.03897436      0.00068527                        
       2     -0.00069740     -0.03897436     -0.00120680                        
       3     -0.00001097     -0.03897436     -0.00003294                        
       4     -0.00021090     -0.03897436     -0.00037788                        
       5     -0.00016404     -0.03897436     -0.00118548                        
       6      0.00076885     -0.03897436     -0.00046589                        
       7      0.00093321     -0.03897436      0.00071437                        
       8      0.00014465     -0.03897436      0.00116892                        
       9     -0.00078123     -0.03897436      0.00043454                        
      10     -0.00094598     -0.03897436     -0.00073506                        
      11      0.00017646     -0.03897436      0.00027891                        
      12     -0.00099235     -0.03897436     -0.00013711                        
      13     -0.00038715     -0.03897436      0.00090175                        
      14      0.00068486     -0.03897436      0.00119038                        
      15      0.00097098     -0.03897436      0.00011167                        
      16      0.00037873     -0.03897436     -0.00093539                        
      17     -0.00041431     -0.03897436     -0.00072391                        
      18      0.00039473     -0.03794872      0.00068527                        
      19     -0.00069740     -0.03794872     -0.00120680                        
      20     -0.00001097     -0.03794872     -0.00003294                        
$ ... 1488 like lines cut
*ELEMENT_SOLID
       1       1
       3       6      15      11     661     658     649     653
       2       1
       3      11      15       6      20      28      32      23
       3       1
      20      28      32      23      37      45      49      40
       4       1
      37      45      49      40      54      62      66      57
       5       1
      54      62      66      57      71      79      83      74
       6       1
      71      79      83      74      88      96     100      91
       7       1
      88      96     100      91     105     113     117     108
       8       1
     105     113     117     108     122     130     134     125
       9       1
     122     130     134     125     139     147     151     142
      10       1
     139     147     151     142     156     164     168     159
$ ... 2056 like lines cut
*DEFINE_COORDINATE_SYSTEM
$       ID        xO        yO        zO        xL        yL        zL   unused1
        19         0         0         0         1         0         0          
$       xP        yP        zP                                           unused2
         0         1         0                                                  
*DEFINE_COORDINATE_SYSTEM
$       ID        xO        yO        zO        xL        yL        zL   unused1
        39         0         0         0         1         0         0          
$       xP        yP        zP                                           unused2
         0         1         0                                                  
*INITIAL_VELOCITY_GENERATION
$      sid      styp     omega        vx        vy        vz     ivatn      icid
         2         2       0.1         0         0         0         0         0
$       xc        yc        zc        nx        ny        nz     phase   unused2
         0         0         0         0        -1         0         0          
*CONTACT_AUTOMATIC_SINGLE_SURFACE_ID
$       ID                                                               heading
        69                                                      Body Interaction
$     ssid      msid     sstyp     mstyp    sboxid    mboxid       spr       mpr
         0         0         5         0         0         0         0         0
$       fs        fd        dc        vc       vdc    penchk        bt        dt
         0         0         0         0        10         0         0         0
$      sfs       sfm       sst       mst      sfst      sfmt       fsf       vsf
         0         0         0         0         0         0         0         0
$     soft   softscl    lcidab    maxpar     sbopt     depth     bsort    frcfrq
         2         0         0         0         3         5         0         0
$   penmax    tkhopt    shlthk     snlog      isym     i2d3d    sldthk    sldstf
         0         0         0         0         0         0         0         0
*SET_PART_LIST
         1
         2
*DEFINE_CURVE
$       ID      sidr       sfa       sfo      offa      offo    dattyp   unused1
         3         0         0         0         0         0         0          
$                 a1                  o1                                 unused1
                   0             9.80665                                        
$                 a1                  o1                                 unused1
                 0.1             9.80665                                        
$                 a1                  o1                                 unused1
                   1             9.80665                                        
*LOAD_BODY_Y
$     lcid        sf    lciddr        xc        yc        zc       cid   unused1
         3         1         0         0         0         0        19          
*LOAD_BODY_PARTS
$     psid                                                               unused1
         1                                                                      
*DATABASE_GLSTAT
$       dt    binary      lcur     ioopt     dthff     binhf             unused1
    0.0001         3         0         0         0         0                   0
*DATABASE_SPCFORC
$       dt    binary      lcur     ioopt     dthff     binhf             unused1
    0.0001         3         0         0         0         0                   0
*DATABASE_RCFORC
$       dt    binary      lcur     ioopt     dthff     binhf             unused1
    0.0001         3         0         0         0         0                   0
*DATABASE_NCFORC
$       dt    binary      lcur     ioopt     dthff     binhf             unused1
    0.0001         3         0         0         0         0                   0
*DATABASE_BNDOUT
$       dt    binary      lcur     ioopt     dthff     binhf             unused1
    0.0001         3         0         0         0         0                   0
*DATABASE_NODOUT
$       dt    binary      lcur     ioopt     dthff     binhf             unused1
    0.0001         3         0         0         0         0                   0
*DATABASE_MATSUM
$       dt    binary      lcur     ioopt     dthff     binhf             unused1
    0.0001         3         0         0         0         0                   0
*DATABASE_ELOUT
$       dt    binary      lcur     ioopt     dthff     binhf             unused1
    0.0001         3         0         0         0         0                   0
*DATABASE_JNTFORC
$       dt    binary      lcur     ioopt     dthff     binhf             unused1
    0.0001         3         0         0         0         0                   0
*DATABASE_DEFORC
$       dt    binary      lcur     ioopt     dthff     binhf             unused1
    0.0001         3         0         0         0         0                   0
*DATABASE_TPRINT
$       dt    binary      lcur     ioopt     dthff     binhf             unused1
    0.0001         3         0         0         0         0                   0
*DATABASE_EXTENT_BINARY
$    neiph     neips    maxint    strflg    sigflg    epsflg    rltflg    engflg
         0         0         0        10         1         1         0         0
$   cmpflg    ieverp    beamip     dcomp      shge     stssz    n3thdt   ialemat
         0         0         0         0         0         0         0         0
$  nintsld   pkp_sen      sclp     hydro     msscl     therm    intout    nodout
         0         0         0         0         2         0                    
*DATABASE_BINARY_D3PLOT
$       dt      lcdt      beam     npltc    psetid                       unused1
     0.005         0         0         0         0                              
$    ioopt                                                               unused2
         0                                                                      
*DATABASE_BINARY_INTFOR
$       dt      lcdt      beam     npltc    psetid                        unused
     0.005         0         0         0         0                              
*DATABASE_BINARY_D3PROP
$    ifile     imatl     iwall                                           unused2
         2         1         0                                                  
*END
